 .Sol file Watershed HRU:48 Subbasin:10 HRU:10 Luse:ORCD Soil: HRXT Slope: 0-9999 2022/4/11 0:00:00 ArcSWAT 2009.93.7
 Soil Name: HRXT
 Soil Hydrologic Group: B
 Maximum rooting depth(m) :    0.00
 Porosity fraction from which anions are excluded: 0.500
 Crack volume potential of soil: 0.500
 Texture 1                : C-C-C-C
 Depth                [mm]:      180.00      600.00
 Bulk Density Moist [g/cc]:        1.19        1.48
 Ave. AW Incl. Rock Frag  :        0.22        0.23
 Ksat. (est.)      [mm/hr]:       29.46       17.30
 Organic Carbon [weight %]:        2.88        0.24
 Clay           [weight %]:       15.75        6.89
 Silt           [weight %]:       14.55       15.30
 Sand           [weight %]:       69.70       77.81
 Rock Fragments   [vol. %]:        0.00        0.00
 Soil Albedo (Moist)      :        0.20        0.20
 Erosion K                :        0.10        0.19
 Salinity (EC, Form 5)    :        0.00        0.00
                              
