 .Wgn file Subbasin: 13 STATION NAME:dh 2022/4/11 0:00:00 ArcSWAT 2009.93.7
  LATITUDE =  25.48 LONGITUDE = 118.23
  ELEV [m] = 451.40
  RAIN_YRS =  21.00
 16.00 17.00 19.00 23.00 26.00 29.00 31.00 31.00 29.00 25.00 21.00 18.00
  6.00  8.00 10.00 15.00 18.00 21.00 23.00 22.00 20.00 16.00 12.00  7.00
  5.00  5.00  5.00  5.00  4.00  3.00  2.00  3.00  3.00  3.00  4.00  4.00
  4.00  4.00  4.00  3.00  3.00  2.00  1.00  1.00  2.00  3.00  4.00  4.00
 56.00 92.00143.00165.00237.00297.00222.00352.00180.00 59.00 29.00 39.00
  5.00  7.00  9.00 11.00 16.00 18.00 17.00 24.00 15.00  9.00  4.00  5.00
  5.00  3.00  3.00  3.00  3.00  3.00  4.00  4.00  4.00  8.00  6.00  6.00
  0.00  0.00  0.00  0.00  0.00  0.00  0.00  0.00  0.00  0.00  0.00  0.00
  1.00  1.00  1.00  1.00  1.00  1.00  1.00  1.00  1.00  1.00  0.00  1.00
 10.00 13.00 17.00 17.00 18.00 19.00 14.00 19.00 13.00  6.00  5.00  7.00
  0.00  0.00  0.00  0.00  0.00 15.30 46.50 49.90 32.00 31.00  0.00  0.00
  9.00  9.00 10.00 12.00 14.00 15.00 20.00 18.00 16.00 15.00 12.00 10.00
  7.00  9.00 12.00 15.00 19.00 22.00 23.00 23.00 20.00 16.00 12.00  8.00
  1.33  1.32  1.34  1.36  1.32  1.37  1.59  1.56  1.55  1.64  1.49  1.38
