 .Sol file Watershed HRU:139 Subbasin:20 HRU:1 Luse:RICE Soil: HUR Slope: 0-9999 2022/4/11 0:00:00 ArcSWAT 2009.93.7
 Soil Name: HUR
 Soil Hydrologic Group: B
 Maximum rooting depth(m) :    0.00
 Porosity fraction from which anions are excluded: 0.500
 Crack volume potential of soil: 0.500
 Texture 1                : SIL-CN--SIL-CNV-SIL-UWB
 Depth                [mm]:      420.00      570.00     1120.00     1420.00
 Bulk Density Moist [g/cc]:        1.10        1.39        1.45        1.45
 Ave. AW Incl. Rock Frag  :        0.16        0.15        0.14        0.15
 Ksat. (est.)      [mm/hr]:       19.50       13.46        6.86        4.10
 Organic Carbon [weight %]:        7.14        2.17        1.81        1.19
 Clay           [weight %]:       30.34       22.25       27.48       30.95
 Silt           [weight %]:       26.49       37.20       38.19       29.96
 Sand           [weight %]:       43.17       40.55       34.33       39.09
 Rock Fragments   [vol. %]:        0.00        0.00        0.00        0.00
 Soil Albedo (Moist)      :        0.20        0.20        0.20        0.20
 Erosion K                :        0.10        0.24        0.01        0.01
 Salinity (EC, Form 5)    :        0.00        0.00        0.00        0.00
                              
