 .Sol file Watershed HRU:180 Subbasin:24 HRU:4 Luse:FRST Soil: HHR Slope: 0-9999 2022/4/11 0:00:00 ArcSWAT 2009.93.7
 Soil Name: HHR
 Soil Hydrologic Group: C
 Maximum rooting depth(m) :    0.00
 Porosity fraction from which anions are excluded: 0.500
 Crack volume potential of soil: 0.500
 Texture 1                : L-CN--SIL-CNV-FSL-UWB
 Depth                [mm]:      100.00      250.00      420.00      800.00
 Bulk Density Moist [g/cc]:        1.17        1.17        2.00        1.19
 Ave. AW Incl. Rock Frag  :        0.15        0.15        0.16        0.15
 Ksat. (est.)      [mm/hr]:        3.56        3.56        2.54        0.50
 Organic Carbon [weight %]:        4.57        4.09        3.41        2.50
 Clay           [weight %]:       48.02       48.52       48.14       53.04
 Silt           [weight %]:       28.28       28.18       31.10       27.62
 Sand           [weight %]:       23.70       23.30       20.76       19.34
 Rock Fragments   [vol. %]:        0.00        0.00        0.00        0.00
 Soil Albedo (Moist)      :        0.20        0.20        0.20        0.20
 Erosion K                :        0.10        0.23        0.01        0.01
 Salinity (EC, Form 5)    :        0.00        0.00        0.00        0.00
                              
