 .Sol file Watershed HRU:237 Subbasin:30 HRU:9 Luse:FRST Soil: GLH Slope: 0-9999 2022/4/11 0:00:00 ArcSWAT 2009.93.7
 Soil Name: GLH
 Soil Hydrologic Group: D
 Maximum rooting depth(m) :    0.00
 Porosity fraction from which anions are excluded: 0.500
 Crack volume potential of soil: 0.500
 Texture 1                : SIL-SICL-SIC
 Depth                [mm]:       70.00      250.00      850.00     1000.00
 Bulk Density Moist [g/cc]:        1.21        1.46        1.44        1.77
 Ave. AW Incl. Rock Frag  :        0.17        0.13        0.10        0.08
 Ksat. (est.)      [mm/hr]:        0.76        3.05        0.51       19.81
 Organic Carbon [weight %]:        0.05        0.05        0.05        0.05
 Clay           [weight %]:       50.60       44.32       45.69        5.75
 Silt           [weight %]:       16.28       12.03       11.41       19.53
 Sand           [weight %]:       33.12       43.65       42.90       74.72
 Rock Fragments   [vol. %]:        0.00        0.00        0.00        0.00
 Soil Albedo (Moist)      :        0.00        0.00        0.00        0.00
 Erosion K                :        0.10        0.18        0.01        0.01
 Salinity (EC, Form 5)    :        0.00        0.00        0.00        0.00
                              
