 .Wgn file Subbasin: 36 STATION NAME:yc 2022/4/11 0:00:00 ArcSWAT 2009.93.7
  LATITUDE =  25.33 LONGITUDE = 118.27
  ELEV [m] = 170.30
  RAIN_YRS =  21.00
 18.00 19.00 21.00 25.00 28.00 31.00 34.00 33.00 31.00 28.00 25.00 21.00
  9.00 10.00 12.00 16.00 20.00 23.00 24.00 24.00 22.00 18.00 14.00 10.00
  4.00  5.00  5.00  5.00  4.00  3.00  3.00  3.00  3.00  3.00  4.00  4.00
  4.00  4.00  3.00  3.00  2.00  2.00  1.00  1.00  2.00  3.00  4.00  4.00
 49.00 85.00135.00155.00222.00289.00219.00345.00203.00 55.00 25.00 36.00
  5.00  7.00  9.00 11.00 15.00 19.00 19.00 25.00 19.00  9.00  3.00  4.00
  5.00  3.00  3.00  4.00  3.00  4.00  5.00  4.00  4.00  7.00  6.00  6.00
  0.00  0.00  0.00  0.00  0.00  0.00  0.00  0.00  0.00  0.00  0.00  0.00
  1.00  1.00  1.00  1.00  1.00  1.00  1.00  1.00  1.00  1.00  1.00  1.00
  9.00 12.00 16.00 15.00 16.00 19.00 14.00 18.00 13.00  6.00  5.00  7.00
  0.00  0.00  0.00  0.00  0.00 15.30 46.50 49.90 32.00 31.00  0.00  0.00
  9.00  9.00 10.00 12.00 13.00 13.00 19.00 17.00 15.00 14.00 11.00 10.00
  9.00 11.00 13.00 17.00 20.00 24.00 25.00 25.00 22.00 18.00 14.00 10.00
  1.56  1.59  1.52  1.57  1.49  1.55  1.79  1.80  1.72  1.73  1.76  1.63
