 .Sol file Watershed HRU:129 Subbasin:19 HRU:3 Luse:FRST Soil: LGH Slope: 0-9999 2022/4/11 0:00:00 ArcSWAT 2009.93.7
 Soil Name: LGH
 Soil Hydrologic Group: B
 Maximum rooting depth(m) :    0.00
 Porosity fraction from which anions are excluded: 0.500
 Crack volume potential of soil: 0.500
 Texture 1                : FSL-GR--FSL-GRV-LS-GRX-CO
 Depth                [mm]:       80.00     1200.00     1500.00
 Bulk Density Moist [g/cc]:        1.18        1.21        1.19
 Ave. AW Incl. Rock Frag  :        0.15        0.17        0.17
 Ksat. (est.)      [mm/hr]:       15.24        0.76        1.01
 Organic Carbon [weight %]:        3.51        0.68        0.44
 Clay           [weight %]:       33.84       50.97       52.15
 Silt           [weight %]:       31.24       26.58       25.02
 Sand           [weight %]:       34.92       22.45       22.83
 Rock Fragments   [vol. %]:        0.00        0.00        0.00
 Soil Albedo (Moist)      :        0.20        0.20        0.20
 Erosion K                :        0.10        0.19        0.01
 Salinity (EC, Form 5)    :        0.00        0.00        0.00
                              
