 .Sol file Watershed HRU:49 Subbasin:10 HRU:11 Luse:ORCD Soil: SSDT Slope: 0-9999 2022/4/11 0:00:00 ArcSWAT 2009.93.7
 Soil Name: SSDT
 Soil Hydrologic Group: C
 Maximum rooting depth(m) :    0.00
 Porosity fraction from which anions are excluded: 0.500
 Crack volume potential of soil: 0.500
 Texture 1                : FSL-S-VFSL
 Depth                [mm]:      140.00      260.00      600.00      800.00
 Bulk Density Moist [g/cc]:        1.44        1.58        1.63        1.64
 Ave. AW Incl. Rock Frag  :        0.13        0.03        0.13        0.13
 Ksat. (est.)      [mm/hr]:        3.05        3.56        0.51        0.25
 Organic Carbon [weight %]:        0.05        0.05        0.05        0.05
 Clay           [weight %]:       31.36       26.66       39.55       37.01
 Silt           [weight %]:       23.20       19.32       22.17       20.24
 Sand           [weight %]:       45.44       54.02       38.28       42.75
 Rock Fragments   [vol. %]:        0.00        0.00        0.00        0.00
 Soil Albedo (Moist)      :        0.00        0.00        0.00        0.00
 Erosion K                :        0.01        0.01        0.01        0.01
 Salinity (EC, Form 5)    :        0.00        0.00        0.00        0.00
                              
