 .Sol file Watershed HRU:298 Subbasin:38 HRU:2 Luse:FRST Soil: QSH Slope: 0-9999 2022/4/11 0:00:00 ArcSWAT 2009.93.7
 Soil Name: QSH
 Soil Hydrologic Group: C
 Maximum rooting depth(m) :    0.00
 Porosity fraction from which anions are excluded: 0.500
 Crack volume potential of soil: 0.500
 Texture 1                : FSL-FSL-SIC
 Depth                [mm]:      180.00      700.00     1200.00
 Bulk Density Moist [g/cc]:        1.31        1.61        1.57
 Ave. AW Incl. Rock Frag  :        0.14        0.13        0.04
 Ksat. (est.)      [mm/hr]:        9.14        0.51        0.76
 Organic Carbon [weight %]:        0.05        0.05        0.05
 Clay           [weight %]:       31.66       43.14       45.06
 Silt           [weight %]:       29.19       34.99       30.95
 Sand           [weight %]:       39.15       21.87       23.99
 Rock Fragments   [vol. %]:        0.00        0.00        0.00
 Soil Albedo (Moist)      :        0.00        0.00        0.00
 Erosion K                :        0.10        0.30        0.01
 Salinity (EC, Form 5)    :        0.00        0.00        0.00
                              
