 .Sol file Watershed HRU:287 Subbasin:35 HRU:7 Luse:ORCD Soil: CST Slope: 0-9999 2022/4/11 0:00:00 ArcSWAT 2009.93.7
 Soil Name: CST
 Soil Hydrologic Group: B
 Maximum rooting depth(m) :    0.00
 Porosity fraction from which anions are excluded: 0.500
 Crack volume potential of soil: 0.500
 Texture 1                : LFS-S-VFSL
 Depth                [mm]:      200.00      500.00      700.00
 Bulk Density Moist [g/cc]:        1.42        1.68        1.75
 Ave. AW Incl. Rock Frag  :        0.10        0.08        0.07
 Ksat. (est.)      [mm/hr]:       68.33       28.45        2.03
 Organic Carbon [weight %]:        0.05        0.05        0.05
 Clay           [weight %]:        5.75        5.79       42.16
 Silt           [weight %]:       19.53       18.82       30.36
 Sand           [weight %]:       74.72       75.39       27.48
 Rock Fragments   [vol. %]:        0.00        0.00        0.00
 Soil Albedo (Moist)      :        0.00        0.00        0.00
 Erosion K                :        0.10        0.26        0.01
 Salinity (EC, Form 5)    :        0.00        0.00        0.00
                              
